# generated using pymatgen
data_Si
_symmetry_space_group_name_H-M   'P 1'
_cell_length_a   7.67917964
_cell_length_b   7.67917964
_cell_length_c   7.67917964
_cell_angle_alpha   60.00000000
_cell_angle_beta   60.00000000
_cell_angle_gamma   60.00000000
_symmetry_Int_Tables_number   1
_chemical_formula_structural   Si
_chemical_formula_sum   Si16
_cell_volume   320.20601400
_cell_formula_units_Z   16
loop_
 _symmetry_equiv_pos_site_id
 _symmetry_equiv_pos_as_xyz
  1  'x, y, z'
loop_
 _atom_site_type_symbol
 _atom_site_label
 _atom_site_symmetry_multiplicity
 _atom_site_fract_x
 _atom_site_fract_y
 _atom_site_fract_z
 _atom_site_occupancy
  Si  Si0  1  -0.04382687  -0.00777140  0.00864544  1
  Si  Si1  1  0.08779709  0.11089661  0.13004810  1
  Si  Si2  1  -0.04415833  0.00108911  0.50982736  1
  Si  Si3  1  0.08509105  0.11773643  0.62643975  1
  Si  Si4  1  -0.04997159  0.48957106  0.00496249  1
  Si  Si5  1  0.08323134  0.62197765  0.13123759  1
  Si  Si6  1  -0.04806655  0.49655748  0.51081532  1
  Si  Si7  1  0.07547089  0.63217232  0.62482230  1
  Si  Si8  1  0.45578952  -0.01047298  0.01603216  1
  Si  Si9  1  0.57459569  0.11537027  0.14585683  1
  Si  Si10  1  0.45091324  -0.00743057  0.51144191  1
  Si  Si11  1  0.57359415  0.12364103  0.63549899  1
  Si  Si12  1  0.44689631  0.48260565  0.01547670  1
  Si  Si13  1  0.57580165  0.61411657  0.14760742  1
  Si  Si14  1  0.43961347  0.49277979  0.51901979  1
  Si  Si15  1  0.57113982  0.61417668  0.63668069  1
