# generated using pymatgen
data_Si
_symmetry_space_group_name_H-M   'P 1'
_cell_length_a   7.67917964
_cell_length_b   7.67917964
_cell_length_c   7.67917964
_cell_angle_alpha   60.00000000
_cell_angle_beta   60.00000000
_cell_angle_gamma   60.00000000
_symmetry_Int_Tables_number   1
_chemical_formula_structural   Si
_chemical_formula_sum   Si16
_cell_volume   320.20601400
_cell_formula_units_Z   16
loop_
 _symmetry_equiv_pos_site_id
 _symmetry_equiv_pos_as_xyz
  1  'x, y, z'
loop_
 _atom_site_type_symbol
 _atom_site_label
 _atom_site_symmetry_multiplicity
 _atom_site_fract_x
 _atom_site_fract_y
 _atom_site_fract_z
 _atom_site_occupancy
  Si  Si0  1  -0.03259621  0.00008906  0.00534449  1
  Si  Si1  1  0.09463651  0.12687534  0.13343040  1
  Si  Si2  1  -0.02713074  -0.01510239  0.50729358  1
  Si  Si3  1  0.09112817  0.12345751  0.63072502  1
  Si  Si4  1  -0.01692500  0.49714148  0.00905287  1
  Si  Si5  1  0.08928208  0.62444738  0.14121291  1
  Si  Si6  1  -0.02674845  0.49404314  0.51196981  1
  Si  Si7  1  0.09791753  0.61395614  0.64020188  1
  Si  Si8  1  0.47735727  -0.00411007  0.00219489  1
  Si  Si9  1  0.59732608  0.12841891  0.12564137  1
  Si  Si10  1  0.48164389  -0.00422954  0.50432477  1
  Si  Si11  1  0.60656141  0.11535622  0.63460479  1
  Si  Si12  1  0.47248575  0.50890642  0.00065040  1
  Si  Si13  1  0.60412791  0.62001195  0.12255377  1
  Si  Si14  1  0.47917124  0.49097203  0.50021135  1
  Si  Si15  1  0.59918878  0.61891924  0.62451694  1
