# generated using pymatgen
data_Si
_symmetry_space_group_name_H-M   'P 1'
_cell_length_a   7.67917964
_cell_length_b   7.67917964
_cell_length_c   7.67917964
_cell_angle_alpha   60.00000000
_cell_angle_beta   60.00000000
_cell_angle_gamma   60.00000000
_symmetry_Int_Tables_number   1
_chemical_formula_structural   Si
_chemical_formula_sum   Si16
_cell_volume   320.20601400
_cell_formula_units_Z   16
loop_
 _symmetry_equiv_pos_site_id
 _symmetry_equiv_pos_as_xyz
  1  'x, y, z'
loop_
 _atom_site_type_symbol
 _atom_site_label
 _atom_site_symmetry_multiplicity
 _atom_site_fract_x
 _atom_site_fract_y
 _atom_site_fract_z
 _atom_site_occupancy
  Si  Si0  1  -0.05447946  0.00712931  -0.00659895  1
  Si  Si1  1  0.05335903  0.12583673  0.14745769  1
  Si  Si2  1  -0.06023262  0.00518110  0.51497593  1
  Si  Si3  1  0.08580920  0.13108566  0.62934916  1
  Si  Si4  1  -0.05938342  0.49734199  0.01227311  1
  Si  Si5  1  0.06095256  0.62784393  0.13225335  1
  Si  Si6  1  -0.05432686  0.50310289  0.49860540  1
  Si  Si7  1  0.05970792  0.62154797  0.64463596  1
  Si  Si8  1  0.43810831  -0.01619675  0.03459228  1
  Si  Si9  1  0.57740417  0.11360920  0.13757569  1
  Si  Si10  1  0.46287615  -0.02010866  0.52544487  1
  Si  Si11  1  0.57506698  0.09963786  0.66278066  1
  Si  Si12  1  0.44681187  0.49084657  -0.00026695  1
  Si  Si13  1  0.56295461  0.60410433  0.12897344  1
  Si  Si14  1  0.45184660  0.47503096  0.50996025  1
  Si  Si15  1  0.58070779  0.60528212  0.62669934  1
