# generated using pymatgen
data_Si
_symmetry_space_group_name_H-M   'P 1'
_cell_length_a   7.67917964
_cell_length_b   7.67917964
_cell_length_c   7.67917964
_cell_angle_alpha   60.00000000
_cell_angle_beta   60.00000000
_cell_angle_gamma   60.00000000
_symmetry_Int_Tables_number   1
_chemical_formula_structural   Si
_chemical_formula_sum   Si16
_cell_volume   320.20601400
_cell_formula_units_Z   16
loop_
 _symmetry_equiv_pos_site_id
 _symmetry_equiv_pos_as_xyz
  1  'x, y, z'
loop_
 _atom_site_type_symbol
 _atom_site_label
 _atom_site_symmetry_multiplicity
 _atom_site_fract_x
 _atom_site_fract_y
 _atom_site_fract_z
 _atom_site_occupancy
  Si  Si0  1  0.00671983  0.00992638  0.00322009  1
  Si  Si1  1  0.13669107  0.13803241  0.11483943  1
  Si  Si2  1  0.01012118  -0.01139163  0.49792891  1
  Si  Si3  1  0.12975562  0.12570340  0.62899869  1
  Si  Si4  1  -0.01557981  0.51092345  -0.00553303  1
  Si  Si5  1  0.10119116  0.63533429  0.14328328  1
  Si  Si6  1  -0.00733829  0.50316608  0.50663912  1
  Si  Si7  1  0.13302380  0.61978008  0.62243402  1
  Si  Si8  1  0.51708880  -0.02417929  0.00821514  1
  Si  Si9  1  0.64576185  0.09961968  0.14236714  1
  Si  Si10  1  0.51438069  0.00831467  0.49719059  1
  Si  Si11  1  0.62398847  0.13055933  0.62304210  1
  Si  Si12  1  0.47853238  0.50381076  0.00154113  1
  Si  Si13  1  0.61254576  0.62686765  0.11147668  1
  Si  Si14  1  0.50352272  0.49954284  0.47893862  1
  Si  Si15  1  0.60959478  0.62398990  0.62541810  1
