# generated using pymatgen
data_Si
_symmetry_space_group_name_H-M   'P 1'
_cell_length_a   7.67917964
_cell_length_b   7.67917964
_cell_length_c   7.67917964
_cell_angle_alpha   60.00000000
_cell_angle_beta   60.00000000
_cell_angle_gamma   60.00000000
_symmetry_Int_Tables_number   1
_chemical_formula_structural   Si
_chemical_formula_sum   Si16
_cell_volume   320.20601400
_cell_formula_units_Z   16
loop_
 _symmetry_equiv_pos_site_id
 _symmetry_equiv_pos_as_xyz
  1  'x, y, z'
loop_
 _atom_site_type_symbol
 _atom_site_label
 _atom_site_symmetry_multiplicity
 _atom_site_fract_x
 _atom_site_fract_y
 _atom_site_fract_z
 _atom_site_occupancy
  Si  Si0  1  -0.03511283  -0.02044901  0.01383913  1
  Si  Si1  1  0.09323136  0.12223397  0.12568634  1
  Si  Si2  1  -0.04848302  0.00302166  0.49315705  1
  Si  Si3  1  0.06698516  0.11978583  0.64578787  1
  Si  Si4  1  -0.03389267  0.49413637  0.00365635  1
  Si  Si5  1  0.07787473  0.59949335  0.14986946  1
  Si  Si6  1  -0.04957617  0.49193245  0.51578885  1
  Si  Si7  1  0.07314776  0.62109794  0.63981471  1
  Si  Si8  1  0.47636897  -0.00493391  -0.01531983  1
  Si  Si9  1  0.59582351  0.11097004  0.12311352  1
  Si  Si10  1  0.45224956  -0.00700162  0.51178534  1
  Si  Si11  1  0.58464692  0.12683277  0.61988008  1
  Si  Si12  1  0.46674161  0.49433071  0.02277358  1
  Si  Si13  1  0.58957358  0.62055597  0.13357797  1
  Si  Si14  1  0.45806860  0.50781188  0.51215491  1
  Si  Si15  1  0.57836447  0.62373011  0.65332593  1
