# generated using pymatgen
data_Si
_symmetry_space_group_name_H-M   'P 1'
_cell_length_a   7.67917964
_cell_length_b   7.67917964
_cell_length_c   7.67917964
_cell_angle_alpha   60.00000000
_cell_angle_beta   60.00000000
_cell_angle_gamma   60.00000000
_symmetry_Int_Tables_number   1
_chemical_formula_structural   Si
_chemical_formula_sum   Si16
_cell_volume   320.20601400
_cell_formula_units_Z   16
loop_
 _symmetry_equiv_pos_site_id
 _symmetry_equiv_pos_as_xyz
  1  'x, y, z'
loop_
 _atom_site_type_symbol
 _atom_site_label
 _atom_site_symmetry_multiplicity
 _atom_site_fract_x
 _atom_site_fract_y
 _atom_site_fract_z
 _atom_site_occupancy
  Si  Si0  1  -0.00646652  -0.01122585  0.00387870  1
  Si  Si1  1  0.12168363  0.11861378  0.13200312  1
  Si  Si2  1  -0.01297688  0.01166643  0.49987738  1
  Si  Si3  1  0.12362188  0.12095147  0.62097862  1
  Si  Si4  1  0.00635150  0.49395305  0.00382414  1
  Si  Si5  1  0.14319619  0.61250858  0.10776905  1
  Si  Si6  1  0.00097133  0.50605939  0.49156445  1
  Si  Si7  1  0.12427618  0.63067318  0.63238095  1
  Si  Si8  1  0.49204365  0.01479756  -0.01006126  1
  Si  Si9  1  0.60612128  0.14567264  0.11217846  1
  Si  Si10  1  0.49740906  -0.00962468  0.50502655  1
  Si  Si11  1  0.62716244  0.12661404  0.62469393  1
  Si  Si12  1  0.51293258  0.50305621  -0.00154843  1
  Si  Si13  1  0.63529837  0.62071677  0.13807522  1
  Si  Si14  1  0.49836904  0.49570014  0.51312351  1
  Si  Si15  1  0.63000626  0.61986729  0.62623562  1
