# generated using pymatgen
data_Si
_symmetry_space_group_name_H-M   'P 1'
_cell_length_a   7.67917964
_cell_length_b   7.67917964
_cell_length_c   7.67917964
_cell_angle_alpha   60.00000000
_cell_angle_beta   60.00000000
_cell_angle_gamma   60.00000000
_symmetry_Int_Tables_number   1
_chemical_formula_structural   Si
_chemical_formula_sum   Si16
_cell_volume   320.20601400
_cell_formula_units_Z   16
loop_
 _symmetry_equiv_pos_site_id
 _symmetry_equiv_pos_as_xyz
  1  'x, y, z'
loop_
 _atom_site_type_symbol
 _atom_site_label
 _atom_site_symmetry_multiplicity
 _atom_site_fract_x
 _atom_site_fract_y
 _atom_site_fract_z
 _atom_site_occupancy
  Si  Si0  1  -0.01018660  0.00698603  0.01493316  1
  Si  Si1  1  0.13524044  0.12650129  0.11387248  1
  Si  Si2  1  0.03002467  -0.00570253  0.49607940  1
  Si  Si3  1  0.13146772  0.12838930  0.64675066  1
  Si  Si4  1  -0.00715367  0.50074467  -0.00733811  1
  Si  Si5  1  0.10847000  0.63199567  0.13925392  1
  Si  Si6  1  -0.00508142  0.49735859  0.50434430  1
  Si  Si7  1  0.11446068  0.62772363  0.61508502  1
  Si  Si8  1  0.51374169  -0.00748758  -0.00578295  1
  Si  Si9  1  0.62995469  0.11201824  0.13991881  1
  Si  Si10  1  0.50554176  0.00051723  0.49685829  1
  Si  Si11  1  0.63553176  0.11950994  0.60931208  1
  Si  Si12  1  0.48879542  0.50853286  0.00401171  1
  Si  Si13  1  0.61646053  0.63859931  0.11780612  1
  Si  Si14  1  0.49623402  0.49636953  0.48787375  1
  Si  Si15  1  0.61649832  0.61794382  0.62702135  1
